data/open_dss/uhs2_1247/uhs2_1247--udt9312/Loads_scenario_30.dss
New Load.load_p1ulv1851 conn=wye bus1=p1ulv1851.1.2 kV=0.2080002494301389 Vminpu=0.8 Vmaxpu=1.2 model=1 kW=2.72003 kvar=0.5494726990544365 Phases=2

New Load.load_p1ulv1854 conn=wye bus1=p1ulv1854.1.2 kV=0.2080002494301389 Vminpu=0.8 Vmaxpu=1.2 model=1 kW=4.81005 kvar=0.9792362671748885 Phases=2

New Load.load_p1ulv1856 conn=wye bus1=p1ulv1856.1.2 kV=0.2080002494301389 Vminpu=0.8 Vmaxpu=1.2 model=1 kW=1.67002 kvar=0.339984854815939 Phases=2

New Load.load_p1ulv1874 conn=wye bus1=p1ulv1874.1.2 kV=0.2080002494301389 Vminpu=0.8 Vmaxpu=1.2 model=1 kW=3.9800400000000002 kvar=0.8102617463034154 Phases=2

New Load.load_p1ulv1875 conn=wye bus1=p1ulv1875.1.2 kV=0.2080002494301389 Vminpu=0.8 Vmaxpu=1.2 model=1 kW=3.77004 kvar=0.7694756260336619 Phases=2

New Load.load_p1ulv6293 conn=wye bus1=p1ulv6293.1.2 kV=0.2080002494301389 Vminpu=0.8 Vmaxpu=1.2 model=1 kW=2.75003 kvar=0.5598547025122315 Phases=2

New Load.load_p1ulv6294 conn=wye bus1=p1ulv6294.1.2 kV=0.2080002494301389 Vminpu=0.8 Vmaxpu=1.2 model=1 kW=4.06004 kvar=0.8201678426594468 Phases=2

New Load.load_p1ulv6295 conn=wye bus1=p1ulv6295.1.2 kV=0.2080002494301389 Vminpu=0.8 Vmaxpu=1.2 model=1 kW=12.4501 kvar=0.999958579116559 Phases=2

New Load.load_p1ulv6416 conn=wye bus1=p1ulv6416.1.2 kV=0.2080002494301389 Vminpu=0.8 Vmaxpu=1.2 model=1 kW=11.22 kvar=0.7592704872813721 Phases=2

New Load.load_p1ulv6417 conn=wye bus1=p1ulv6417.1.2 kV=0.2080002494301389 Vminpu=0.8 Vmaxpu=1.2 model=1 kW=14.3001 kvar=1.3808131064174733 Phases=2

New Load.load_p1ulv6418 conn=wye bus1=p1ulv6418.1.2 kV=0.2080002494301389 Vminpu=0.8 Vmaxpu=1.2 model=1 kW=8.00008 kvar=1.6202948096478251 Phases=2

New Load.load_p1ulv6419 conn=wye bus1=p1ulv6419.1.2 kV=0.2080002494301389 Vminpu=0.8 Vmaxpu=1.2 model=1 kW=15.7101 kvar=1.6714188194316502 Phases=2

New Load.load_p1ulv6420 conn=wye bus1=p1ulv6420.1.2 kV=0.2080002494301389 Vminpu=0.8 Vmaxpu=1.2 model=1 kW=7.26007 kvar=1.4818004340267499 Phases=2

New Load.load_p1ulv6421 conn=wye bus1=p1ulv6421.1.2 kV=0.2080002494301389 Vminpu=0.8 Vmaxpu=1.2 model=1 kW=9.33009 kvar=1.8994319194199139 Phases=2

New Load.load_p1ulv6422 conn=wye bus1=p1ulv6422.1.2 kV=0.2080002494301389 Vminpu=0.8 Vmaxpu=1.2 model=1 kW=16.3301 kvar=1.7884007404579907 Phases=2

New Load.load_p1ulv6423 conn=wye bus1=p1ulv6423.1.2 kV=0.2080002494301389 Vminpu=0.8 Vmaxpu=1.2 model=1 kW=5.02005 kvar=1.0193646293157332 Phases=2

New Load.load_p1ulv6424 conn=wye bus1=p1ulv6424.1.2 kV=0.2080002494301389 Vminpu=0.8 Vmaxpu=1.2 model=1 kW=15.2101 kvar=1.5615597101490861 Phases=2

New Load.load_p1ulv6425 conn=wye bus1=p1ulv6425.1.2 kV=0.2080002494301389 Vminpu=0.8 Vmaxpu=1.2 model=1 kW=15.5501 kvar=1.6388458102637655 Phases=2

New Load.load_p1ulv6426 conn=wye bus1=p1ulv6426.1.2 kV=0.2080002494301389 Vminpu=0.8 Vmaxpu=1.2 model=1 kW=6.60007 kvar=1.3402013742906727 Phases=2

New Load.load_p1ulv6427 conn=wye bus1=p1ulv6427.1.2 kV=0.2080002494301389 Vminpu=0.8 Vmaxpu=1.2 model=1 kW=12.78 kvar=1.069394007270052 Phases=2

New Load.load_p1ulv6428 conn=wye bus1=p1ulv6428.1.2 kV=0.2080002494301389 Vminpu=0.8 Vmaxpu=1.2 model=1 kW=2.96003 kvar=0.5995091605836256 Phases=2

New Load.load_p1ulv6429 conn=wye bus1=p1ulv6429.1.2 kV=0.2080002494301389 Vminpu=0.8 Vmaxpu=1.2 model=1 kW=14.3001 kvar=1.3808131064174733 Phases=2

New Load.load_p1ulv6430 conn=wye bus1=p1ulv6430.1.2 kV=0.2080002494301389 Vminpu=0.8 Vmaxpu=1.2 model=1 kW=4.23004 kvar=0.8589462568282636 Phases=2

New Load.load_p1ulv6431 conn=wye bus1=p1ulv6431.1.2 kV=0.2080002494301389 Vminpu=0.8 Vmaxpu=1.2 model=1 kW=13.5001 kvar=1.2215000586741016 Phases=2

New Load.load_p1ulv6432 conn=wye bus1=p1ulv6432.1.2 kV=0.2080002494301389 Vminpu=0.8 Vmaxpu=1.2 model=1 kW=13.0901 kvar=1.1409467586725162 Phases=2

New Load.load_p1ulv6433 conn=wye bus1=p1ulv6433.1.2.3 kV=0.48 Vminpu=0.8 Vmaxpu=1.2 model=1 kW=29.460300000000004 kvar=5.982169059875957 Phases=3

New Load.load_p1ulv6434 conn=wye bus1=p1ulv6434.1.2 kV=0.2080002494301389 Vminpu=0.8 Vmaxpu=1.2 model=1 kW=12.53 kvar=1.0187603008056223 Phases=2

New Load.load_p1ulv6435 conn=wye bus1=p1ulv6435.1.2 kV=0.2080002494301389 Vminpu=0.8 Vmaxpu=1.2 model=1 kW=7.38007 kvar=1.498587129585196 Phases=2

New Load.load_p1ulv6436 conn=wye bus1=p1ulv6436.1.2 kV=0.2080002494301389 Vminpu=0.8 Vmaxpu=1.2 model=1 kW=14.5501 kvar=1.4315777715759745 Phases=2

New Load.load_p1ulv6437 conn=wye bus1=p1ulv6437.1.2 kV=0.2080002494301389 Vminpu=0.8 Vmaxpu=1.2 model=1 kW=13.8401 kvar=1.2907177031558559 Phases=2

New Load.load_p1ulv6438 conn=wye bus1=p1ulv6438.1.2 kV=0.2080002494301389 Vminpu=0.8 Vmaxpu=1.2 model=1 kW=13.1301 kvar=1.1402832216685126 Phases=2

New Load.load_p1ulv6439 conn=wye bus1=p1ulv6439.1.2 kV=0.2080002494301389 Vminpu=0.8 Vmaxpu=1.2 model=1 kW=16.5901 kvar=1.8410597951809977 Phases=2

New Load.load_p1ulv6440 conn=wye bus1=p1ulv6440.1.2 kV=0.2080002494301389 Vminpu=0.8 Vmaxpu=1.2 model=1 kW=3.58004 kvar=0.7306960987749602 Phases=2

New Load.load_p1ulv6446 conn=wye bus1=p1ulv6446.1.2 kV=0.2080002494301389 Vminpu=0.8 Vmaxpu=1.2 model=1 kW=14.4201 kvar=1.4087968972025093 Phases=2

New Load.load_p1ulv6447 conn=wye bus1=p1ulv6447.1.2 kV=0.2080002494301389 Vminpu=0.8 Vmaxpu=1.2 model=1 kW=6.46006 kvar=1.30838712713042 Phases=2

New Load.load_p1ulv6456 conn=wye bus1=p1ulv6456.1.2 kV=0.2080002494301389 Vminpu=0.8 Vmaxpu=1.2 model=1 kW=8.00008 kvar=1.6202948096478251 Phases=2

New Load.load_p1ulv7333 conn=wye bus1=p1ulv7333.1.2 kV=0.2080002494301389 Vminpu=0.8 Vmaxpu=1.2 model=1 kW=2.84003 kvar=0.5796580042133189 Phases=2

New Load.load_p1ulv7334 conn=wye bus1=p1ulv7334.1.2 kV=0.2080002494301389 Vminpu=0.8 Vmaxpu=1.2 model=1 kW=13.2701 kvar=1.1686380972885935 Phases=2

New Load.load_p1ulv7335 conn=wye bus1=p1ulv7335.1.2 kV=0.2080002494301389 Vminpu=0.8 Vmaxpu=1.2 model=1 kW=14.2001 kvar=1.3605072403540732 Phases=2

New Load.load_p1ulv7336 conn=wye bus1=p1ulv7336.1.2 kV=0.2080002494301389 Vminpu=0.8 Vmaxpu=1.2 model=1 kW=11.02 kvar=0.7092301716051945 Phases=2

New Load.load_p1ulv7337 conn=wye bus1=p1ulv7337.1.2 kV=0.2080002494301389 Vminpu=0.8 Vmaxpu=1.2 model=1 kW=12.89 kvar=1.088842888327837 Phases=2

New Load.load_p1ulv7338 conn=wye bus1=p1ulv7338.1.2 kV=0.2080002494301389 Vminpu=0.8 Vmaxpu=1.2 model=1 kW=5.24005 kvar=1.0612926142357433 Phases=2

New Load.load_p1ulv7339 conn=wye bus1=p1ulv7339.1.2 kV=0.2080002494301389 Vminpu=0.8 Vmaxpu=1.2 model=1 kW=14.2801 kvar=1.3802955141806108 Phases=2

New Load.load_p1ulv7340 conn=wye bus1=p1ulv7340.1.2 kV=0.2080002494301389 Vminpu=0.8 Vmaxpu=1.2 model=1 kW=1.38001 kvar=0.28022298226153225 Phases=2

New Load.load_p1ulv7341 conn=wye bus1=p1ulv7341.1.2 kV=0.2080002494301389 Vminpu=0.8 Vmaxpu=1.2 model=1 kW=1.38001 kvar=0.28022298226153225 Phases=2

New Load.load_p1ulv7342 conn=wye bus1=p1ulv7342.1.2 kV=0.2080002494301389 Vminpu=0.8 Vmaxpu=1.2 model=1 kW=11.95 kvar=0.898951662187625 Phases=2

New Load.load_p1ulv7343 conn=wye bus1=p1ulv7343.1.2 kV=0.2080002494301389 Vminpu=0.8 Vmaxpu=1.2 model=1 kW=12.05 kvar=0.9191546616517607 Phases=2

New Load.load_p1ulv7344 conn=wye bus1=p1ulv7344.1.2 kV=0.2080002494301389 Vminpu=0.8 Vmaxpu=1.2 model=1 kW=11.14 kvar=0.739141647054201 Phases=2

New Load.load_p1ulv7345 conn=wye bus1=p1ulv7345.1.2 kV=0.2080002494301389 Vminpu=0.8 Vmaxpu=1.2 model=1 kW=10.39 kvar=0.5898631429656088 Phases=2

New Load.load_p1ulv7346 conn=wye bus1=p1ulv7346.1.2 kV=0.2080002494301389 Vminpu=0.8 Vmaxpu=1.2 model=1 kW=3.81004 kvar=0.769665394243948 Phases=2

New Load.load_p1ulv7347 conn=wye bus1=p1ulv7347.1.2 kV=0.2080002494301389 Vminpu=0.8 Vmaxpu=1.2 model=1 kW=3.79004 kvar=0.7696004461493017 Phases=2

New Load.load_p1ulv7348 conn=wye bus1=p1ulv7348.1.2 kV=0.2080002494301389 Vminpu=0.8 Vmaxpu=1.2 model=1 kW=4.56005 kvar=0.9307188593475932 Phases=2

New Load.load_p1ulv7349 conn=wye bus1=p1ulv7349.1.2 kV=0.2080002494301389 Vminpu=0.8 Vmaxpu=1.2 model=1 kW=10.52 kvar=0.6100756371530351 Phases=2

New Load.load_p1ulv7350 conn=wye bus1=p1ulv7350.1.2 kV=0.2080002494301389 Vminpu=0.8 Vmaxpu=1.2 model=1 kW=2.38002 kvar=0.47953488966710467 Phases=2

New Load.load_p1ulv7351 conn=wye bus1=p1ulv7351.1.2 kV=0.2080002494301389 Vminpu=0.8 Vmaxpu=1.2 model=1 kW=2.96003 kvar=0.5995091605836256 Phases=2

New Load.load_p1ulv7352 conn=wye bus1=p1ulv7352.1.2 kV=0.2080002494301389 Vminpu=0.8 Vmaxpu=1.2 model=1 kW=11.92 kvar=0.8998375215150975 Phases=2

New Load.load_p1ulv7353 conn=wye bus1=p1ulv7353.1.2 kV=0.2080002494301389 Vminpu=0.8 Vmaxpu=1.2 model=1 kW=3.99004 kvar=0.8102121782761024 Phases=2

New Load.load_p1ulv7354 conn=wye bus1=p1ulv7354.1.2 kV=0.2080002494301389 Vminpu=0.8 Vmaxpu=1.2 model=1 kW=3.46003 kvar=0.7007765735124853 Phases=2

New Load.load_p1ulv7355 conn=wye bus1=p1ulv7355.1.2 kV=0.2080002494301389 Vminpu=0.8 Vmaxpu=1.2 model=1 kW=14.1201 kvar=1.3407947246159133 Phases=2

New Load.load_p1ulv7356 conn=wye bus1=p1ulv7356.1.2 kV=0.2080002494301389 Vminpu=0.8 Vmaxpu=1.2 model=1 kW=3.25003 kvar=0.659946738820333 Phases=2

New Load.load_p1ulv7357 conn=wye bus1=p1ulv7357.1.2 kV=0.2080002494301389 Vminpu=0.8 Vmaxpu=1.2 model=1 kW=12.44 kvar=1.0005321664784275 Phases=2

New Load.load_p1ulv7358 conn=wye bus1=p1ulv7358.1.2 kV=0.2080002494301389 Vminpu=0.8 Vmaxpu=1.2 model=1 kW=4.94005 kvar=1.0005321664784275 Phases=2

New Load.load_p1ulv7359 conn=wye bus1=p1ulv7359.1.2 kV=0.2080002494301389 Vminpu=0.8 Vmaxpu=1.2 model=1 kW=3.52004 kvar=0.7202814017128122 Phases=2

New Load.load_p1ulv7360 conn=wye bus1=p1ulv7360.1.2 kV=0.2080002494301389 Vminpu=0.8 Vmaxpu=1.2 model=1 kW=4.54005 kvar=0.9195182361353397 Phases=2

New Load.load_p1ulv7361 conn=wye bus1=p1ulv7361.1.2 kV=0.2080002494301389 Vminpu=0.8 Vmaxpu=1.2 model=1 kW=10.93 kvar=0.70007864149034 Phases=2

New Load.load_p1ulv7362 conn=wye bus1=p1ulv7362.1.2 kV=0.2080002494301389 Vminpu=0.8 Vmaxpu=1.2 model=1 kW=11.11 kvar=0.7292634355115489 Phases=2

New Load.load_p1ulv7363 conn=wye bus1=p1ulv7363.1.2 kV=0.2080002494301389 Vminpu=0.8 Vmaxpu=1.2 model=1 kW=12.21 kvar=0.9588781364449609 Phases=2

New Load.load_p1ulv7364 conn=wye bus1=p1ulv7364.1.2 kV=0.2080002494301389 Vminpu=0.8 Vmaxpu=1.2 model=1 kW=2.77003 kvar=0.5595731887375364 Phases=2

New Load.load_p1ulv7365 conn=wye bus1=p1ulv7365.1.2 kV=0.2080002494301389 Vminpu=0.8 Vmaxpu=1.2 model=1 kW=15.0001 kvar=1.5190273967189654 Phases=2

New Load.load_p1ulv7366 conn=wye bus1=p1ulv7366.1.2 kV=0.2080002494301389 Vminpu=0.8 Vmaxpu=1.2 model=1 kW=13.6301 kvar=1.2415506345973724 Phases=2

New Load.load_p1ulv7367 conn=wye bus1=p1ulv7367.1.2 kV=0.2080002494301389 Vminpu=0.8 Vmaxpu=1.2 model=1 kW=11.25 kvar=0.7595136983594827 Phases=2

New Load.load_p1ulv7368 conn=wye bus1=p1ulv7368.1.2 kV=0.2080002494301389 Vminpu=0.8 Vmaxpu=1.2 model=1 kW=3.88004 kvar=0.7899036155734878 Phases=2

New Load.load_p1ulv7369 conn=wye bus1=p1ulv7369.1.2 kV=0.2080002494301389 Vminpu=0.8 Vmaxpu=1.2 model=1 kW=11.18 kvar=0.7491873541136322 Phases=2

New Load.load_p1ulv7370 conn=wye bus1=p1ulv7370.1.2 kV=0.2080002494301389 Vminpu=0.8 Vmaxpu=1.2 model=1 kW=11.49 kvar=0.8102121782761024 Phases=2

New Load.load_p1ulv7371 conn=wye bus1=p1ulv7371.1.2 kV=0.2080002494301389 Vminpu=0.8 Vmaxpu=1.2 model=1 kW=10.73 kvar=0.6592580864811803 Phases=2

New Load.load_p1ulv7372 conn=wye bus1=p1ulv7372.1.2 kV=0.2080002494301389 Vminpu=0.8 Vmaxpu=1.2 model=1 kW=5.63006 kvar=1.1402832216685126 Phases=2

New Load.load_p1ulv7373 conn=wye bus1=p1ulv7373.1.2 kV=0.2080002494301389 Vminpu=0.8 Vmaxpu=1.2 model=1 kW=11.41 kvar=0.7898663736101474 Phases=2

New Load.load_p1ulv7374 conn=wye bus1=p1ulv7374.1.2 kV=0.2080002494301389 Vminpu=0.8 Vmaxpu=1.2 model=1 kW=12.8 kvar=1.0789911077515342 Phases=2

New Load.load_p1ulv7375 conn=wye bus1=p1ulv7375.1.2 kV=0.2080002494301389 Vminpu=0.8 Vmaxpu=1.2 model=1 kW=10.9 kvar=0.6904055379154336 Phases=2

New Load.load_p1ulv7376 conn=wye bus1=p1ulv7376.1.2 kV=0.2080002494301389 Vminpu=0.8 Vmaxpu=1.2 model=1 kW=12.35 kvar=0.9797575997503596 Phases=2

New Load.load_p1ulv7377 conn=wye bus1=p1ulv7377.1.2 kV=0.2080002494301389 Vminpu=0.8 Vmaxpu=1.2 model=1 kW=2.7800300000000004 kvar=0.5601303263507202 Phases=2

New Load.load_p1ulv7378 conn=wye bus1=p1ulv7378.1.2 kV=0.2080002494301389 Vminpu=0.8 Vmaxpu=1.2 model=1 kW=4.69005 kvar=0.9498984600139976 Phases=2

New Load.load_p1ulv7379 conn=wye bus1=p1ulv7379.1.2 kV=0.2080002494301389 Vminpu=0.8 Vmaxpu=1.2 model=1 kW=5.420050000000001 kvar=1.1005880935693348 Phases=2

New Load.load_p1ulv7380 conn=wye bus1=p1ulv7380.1.2 kV=0.2080002494301389 Vminpu=0.8 Vmaxpu=1.2 model=1 kW=11.09 kvar=0.7308650364566972 Phases=2

New Load.load_p1ulv7381 conn=wye bus1=p1ulv7381.1.2 kV=0.2080002494301389 Vminpu=0.8 Vmaxpu=1.2 model=1 kW=5.890060000000001 kvar=1.199106114871181 Phases=2

New Load.load_p1ulv7382 conn=wye bus1=p1ulv7382.1.2 kV=0.2080002494301389 Vminpu=0.8 Vmaxpu=1.2 model=1 kW=11.71 kvar=0.850469311708746 Phases=2

New Load.load_p1ulv7383 conn=wye bus1=p1ulv7383.1.2 kV=0.2080002494301389 Vminpu=0.8 Vmaxpu=1.2 model=1 kW=4.14004 kvar=0.8406709773712032 Phases=2

New Load.load_p1ulv7384 conn=wye bus1=p1ulv7384.1.2 kV=0.2080002494301389 Vminpu=0.8 Vmaxpu=1.2 model=1 kW=1.92002 kvar=0.38987668959050087 Phases=2

New Load.load_p1ulv7385 conn=wye bus1=p1ulv7385.1.2 kV=0.2080002494301389 Vminpu=0.8 Vmaxpu=1.2 model=1 kW=11.090100000000001 kvar=2.251940852297171 Phases=2

New Load.load_p1ulv7386 conn=wye bus1=p1ulv7386.1.2 kV=0.2080002494301389 Vminpu=0.8 Vmaxpu=1.2 model=1 kW=3.47003 kvar=0.7100482018344989 Phases=2

New Load.load_p1ulv7905 conn=wye bus1=p1ulv7905.1.2 kV=0.2080002494301389 Vminpu=0.8 Vmaxpu=1.2 model=1 kW=17.2601 kvar=1.9818728336539455 Phases=2

New Load.load_p1ulv7906 conn=wye bus1=p1ulv7906.1.2 kV=0.2080002494301389 Vminpu=0.8 Vmaxpu=1.2 model=1 kW=3.92004 kvar=0.8000910422905317 Phases=2

New Load.load_p1ulv7907 conn=wye bus1=p1ulv7907.1.2 kV=0.2080002494301389 Vminpu=0.8 Vmaxpu=1.2 model=1 kW=4.02004 kvar=0.8205013197951115 Phases=2

New Load.load_p1ulv7916 conn=wye bus1=p1ulv7916.1.2 kV=0.2080002494301389 Vminpu=0.8 Vmaxpu=1.2 model=1 kW=3.84004 kvar=0.7797533791810017 Phases=2

New Load.load_p1ulv7917 conn=wye bus1=p1ulv7917.1.2 kV=0.2080002494301389 Vminpu=0.8 Vmaxpu=1.2 model=1 kW=3.90004 kvar=0.7898939222381405 Phases=2

New Load.load_p1ulv7919 conn=wye bus1=p1ulv7919.1.2 kV=0.2080002494301389 Vminpu=0.8 Vmaxpu=1.2 model=1 kW=4.08004 kvar=0.8306198770333432 Phases=2

New Load.load_p1ulv7921 conn=wye bus1=p1ulv7921.1.2 kV=0.2080002494301389 Vminpu=0.8 Vmaxpu=1.2 model=1 kW=7.240070000000001 kvar=1.4701589170964355 Phases=2

New Load.load_p1ulv7922 conn=wye bus1=p1ulv7922.1.2 kV=0.2080002494301389 Vminpu=0.8 Vmaxpu=1.2 model=1 kW=12.0201 kvar=0.9201976880580982 Phases=2

New Load.load_p1ulv7926 conn=wye bus1=p1ulv7926.1.2 kV=0.2080002494301389 Vminpu=0.8 Vmaxpu=1.2 model=1 kW=5.32005 kvar=1.0802822275059345 Phases=2

New Load.load_p1ulv7930 conn=wye bus1=p1ulv7930.1.2 kV=0.2080002494301389 Vminpu=0.8 Vmaxpu=1.2 model=1 kW=4.68005 kvar=0.9503246847001716 Phases=2

New Load.load_p1ulv7931 conn=wye bus1=p1ulv7931.1.2 kV=0.2080002494301389 Vminpu=0.8 Vmaxpu=1.2 model=1 kW=4.4900400000000005 kvar=0.9093894694941951 Phases=2

New Load.load_p1ulv7934 conn=wye bus1=p1ulv7934.1.2 kV=0.2080002494301389 Vminpu=0.8 Vmaxpu=1.2 model=1 kW=8.13008 kvar=1.6508831556473056 Phases=2

New Load.load_p1ulv7935 conn=wye bus1=p1ulv7935.1.2 kV=0.2080002494301389 Vminpu=0.8 Vmaxpu=1.2 model=1 kW=3.11003 kvar=0.6298893844622836 Phases=2

New Load.load_p1ulv7944 conn=wye bus1=p1ulv7944.1.2 kV=0.2080002494301389 Vminpu=0.8 Vmaxpu=1.2 model=1 kW=4.96005 kvar=1.0097734632697801 Phases=2

New Load.load_p1ulv7945 conn=wye bus1=p1ulv7945.1.2 kV=0.2080002494301389 Vminpu=0.8 Vmaxpu=1.2 model=1 kW=4.64005 kvar=0.9397717187211114 Phases=2

New Load.load_p1ulv7946 conn=wye bus1=p1ulv7946.1.2 kV=0.2080002494301389 Vminpu=0.8 Vmaxpu=1.2 model=1 kW=10.86 kvar=0.6805230909267135 Phases=2

New Load.load_p1ulv7947 conn=wye bus1=p1ulv7947.1.2 kV=0.2080002494301389 Vminpu=0.8 Vmaxpu=1.2 model=1 kW=11.73 kvar=0.8589462568282636 Phases=2

New Load.load_p1ulv7948 conn=wye bus1=p1ulv7948.1.2 kV=0.2080002494301389 Vminpu=0.8 Vmaxpu=1.2 model=1 kW=5.11005 kvar=1.0403106593646716 Phases=2

New Load.load_p1ulv7949 conn=wye bus1=p1ulv7949.1.2 kV=0.2080002494301389 Vminpu=0.8 Vmaxpu=1.2 model=1 kW=11.68 kvar=0.8509780077632708 Phases=2

New Load.load_p1ulv7950 conn=wye bus1=p1ulv7950.1.2 kV=0.2080002494301389 Vminpu=0.8 Vmaxpu=1.2 model=1 kW=12.9901 kvar=1.1205344401401856 Phases=2

New Load.load_p1ulv7951 conn=wye bus1=p1ulv7951.1.2 kV=0.2080002494301389 Vminpu=0.8 Vmaxpu=1.2 model=1 kW=13.4101 kvar=1.200088867866603 Phases=2

New Load.load_p1ulv7953 conn=wye bus1=p1ulv7953.1.2 kV=0.2080002494301389 Vminpu=0.8 Vmaxpu=1.2 model=1 kW=6.47006 kvar=1.3104124753889972 Phases=2

New Load.load_p1ulv7954 conn=wye bus1=p1ulv7954.1.2 kV=0.2080002494301389 Vminpu=0.8 Vmaxpu=1.2 model=1 kW=4.55005 kvar=0.9191546616517607 Phases=2

New Load.load_p1ulv7956 conn=wye bus1=p1ulv7956.1.2 kV=0.2080002494301389 Vminpu=0.8 Vmaxpu=1.2 model=1 kW=14.6001 kvar=1.4417307046076748 Phases=2

New Load.load_p1ulv7957 conn=wye bus1=p1ulv7957.1.2 kV=0.2080002494301389 Vminpu=0.8 Vmaxpu=1.2 model=1 kW=12.76 kvar=1.070847855459563 Phases=2

New Load.load_p1ulv7958 conn=wye bus1=p1ulv7958.1.2 kV=0.2080002494301389 Vminpu=0.8 Vmaxpu=1.2 model=1 kW=4.68005 kvar=0.9503246847001716 Phases=2

New Load.load_p1ulv7959 conn=wye bus1=p1ulv7959.1.2 kV=0.2080002494301389 Vminpu=0.8 Vmaxpu=1.2 model=1 kW=3.59004 kvar=0.7308650364566972 Phases=2

New Load.load_p1ulv7960 conn=wye bus1=p1ulv7960.1.2 kV=0.2080002494301389 Vminpu=0.8 Vmaxpu=1.2 model=1 kW=3.93004 kvar=0.8000826809384517 Phases=2

New Load.load_p1ulv7961 conn=wye bus1=p1ulv7961.1.2 kV=0.2080002494301389 Vminpu=0.8 Vmaxpu=1.2 model=1 kW=12.0701 kvar=0.9303767534230621 Phases=2

New Load.load_p1ulv7963 conn=wye bus1=p1ulv7963.1.2 kV=0.2080002494301389 Vminpu=0.8 Vmaxpu=1.2 model=1 kW=10.8301 kvar=2.1991456005323298 Phases=2

New Load.load_p1ulv7964 conn=wye bus1=p1ulv7964.1.2 kV=0.2080002494301389 Vminpu=0.8 Vmaxpu=1.2 model=1 kW=2.33002 kvar=0.469460711936096 Phases=2

New Load.load_p1ulv7965 conn=wye bus1=p1ulv7965.1.2 kV=0.2080002494301389 Vminpu=0.8 Vmaxpu=1.2 model=1 kW=12.9901 kvar=1.1205344401401856 Phases=2

New Load.load_p1ulv7966 conn=wye bus1=p1ulv7966.1.2 kV=0.2080002494301389 Vminpu=0.8 Vmaxpu=1.2 model=1 kW=5.67006 kvar=1.1513547893144422 Phases=2

New Load.load_p1ulv7967 conn=wye bus1=p1ulv7967.1.2 kV=0.2080002494301389 Vminpu=0.8 Vmaxpu=1.2 model=1 kW=3.92004 kvar=0.8000910422905317 Phases=2

New Load.load_p1ulv7968 conn=wye bus1=p1ulv7968.1.2 kV=0.2080002494301389 Vminpu=0.8 Vmaxpu=1.2 model=1 kW=4.670050000000001 kvar=0.9507348841529898 Phases=2

New Load.load_p1ulv7969 conn=wye bus1=p1ulv7969.1.2 kV=0.2080002494301389 Vminpu=0.8 Vmaxpu=1.2 model=1 kW=7.05007 kvar=1.4315777715759745 Phases=2

New Load.load_p1ulv7970 conn=wye bus1=p1ulv7970.1.2 kV=0.2080002494301389 Vminpu=0.8 Vmaxpu=1.2 model=1 kW=7.53008 kvar=1.529047959266903 Phases=2

New Load.load_p1ulv7971 conn=wye bus1=p1ulv7971.1.2 kV=0.2080002494301389 Vminpu=0.8 Vmaxpu=1.2 model=1 kW=4.10004 kvar=0.8304008874096844 Phases=2

New Load.load_p1ulv7972 conn=wye bus1=p1ulv7972.1.2 kV=0.2080002494301389 Vminpu=0.8 Vmaxpu=1.2 model=1 kW=11.55 kvar=0.8202741461167985 Phases=2

New Load.load_p1ulv7973 conn=wye bus1=p1ulv7973.1.2 kV=0.2080002494301389 Vminpu=0.8 Vmaxpu=1.2 model=1 kW=13.6501 kvar=1.2488229464187643 Phases=2

New Load.load_p1ulv7974 conn=wye bus1=p1ulv7974.1.2 kV=0.2080002494301389 Vminpu=0.8 Vmaxpu=1.2 model=1 kW=12.25 kvar=0.95955662038416 Phases=2

New Load.load_p1ulv7975 conn=wye bus1=p1ulv7975.1.2 kV=0.2080002494301389 Vminpu=0.8 Vmaxpu=1.2 model=1 kW=12.46 kvar=1.0097734632697801 Phases=2

New Load.load_p1ulv7976 conn=wye bus1=p1ulv7976.1.2 kV=0.2080002494301389 Vminpu=0.8 Vmaxpu=1.2 model=1 kW=12.43 kvar=1.0010893498586726 Phases=2

New Load.load_p1ulv7977 conn=wye bus1=p1ulv7977.1.2 kV=0.2080002494301389 Vminpu=0.8 Vmaxpu=1.2 model=1 kW=15.4701 kvar=1.6183937699458648 Phases=2

New Load.load_p1ulv7978 conn=wye bus1=p1ulv7978.1.2 kV=0.2080002494301389 Vminpu=0.8 Vmaxpu=1.2 model=1 kW=9.5301 kvar=1.940150216692842 Phases=2

New Load.load_p1ulv7979 conn=wye bus1=p1ulv7979.1.2 kV=0.2080002494301389 Vminpu=0.8 Vmaxpu=1.2 model=1 kW=13.6101 kvar=1.2407005999934042 Phases=2

New Load.load_p1ulv7980 conn=wye bus1=p1ulv7980.1.2 kV=0.2080002494301389 Vminpu=0.8 Vmaxpu=1.2 model=1 kW=5.98006 kvar=1.2111704107187142 Phases=2

New Load.load_p1ulv7981 conn=wye bus1=p1ulv7981.1.2 kV=0.2080002494301389 Vminpu=0.8 Vmaxpu=1.2 model=1 kW=5.420050000000001 kvar=1.1005880935693348 Phases=2

New Load.load_p1ulv7982 conn=wye bus1=p1ulv7982.1.2 kV=0.2080002494301389 Vminpu=0.8 Vmaxpu=1.2 model=1 kW=14.9401 kvar=1.5107706492232365 Phases=2

New Load.load_p1ulv7983 conn=wye bus1=p1ulv7983.1.2 kV=0.2080002494301389 Vminpu=0.8 Vmaxpu=1.2 model=1 kW=6.00006 kvar=1.2215000586741016 Phases=2

New Load.load_p1ulv7984 conn=wye bus1=p1ulv7984.1.2 kV=0.2080002494301389 Vminpu=0.8 Vmaxpu=1.2 model=1 kW=13.9501 kvar=1.3097405446089656 Phases=2

New Load.load_p1ulv7985 conn=wye bus1=p1ulv7985.1.2 kV=0.2080002494301389 Vminpu=0.8 Vmaxpu=1.2 model=1 kW=12.3201 kvar=0.9787528971889325 Phases=2

New Load.load_p1ulv7986 conn=wye bus1=p1ulv7986.1.2 kV=0.2080002494301389 Vminpu=0.8 Vmaxpu=1.2 model=1 kW=4.76005 kvar=0.9690572018099246 Phases=2

New Load.load_p1ulv7987 conn=wye bus1=p1ulv7987.1.2 kV=0.2080002494301389 Vminpu=0.8 Vmaxpu=1.2 model=1 kW=5.73006 kvar=1.1605367042542845 Phases=2

New Load.load_p1ulv7988 conn=wye bus1=p1ulv7988.1.2 kV=0.2080002494301389 Vminpu=0.8 Vmaxpu=1.2 model=1 kW=11.81 kvar=0.8796911245583932 Phases=2

New Load.load_p1ulv7989 conn=wye bus1=p1ulv7989.1.2 kV=0.2080002494301389 Vminpu=0.8 Vmaxpu=1.2 model=1 kW=16.0301 kvar=1.7321086504875136 Phases=2

New Load.load_p1ulv7990 conn=wye bus1=p1ulv7990.1.2 kV=0.2080002494301389 Vminpu=0.8 Vmaxpu=1.2 model=1 kW=5.94006 kvar=1.2092851802361448 Phases=2

New Load.load_p1ulv7991 conn=wye bus1=p1ulv7991.1.2 kV=0.2080002494301389 Vminpu=0.8 Vmaxpu=1.2 model=1 kW=13.6201 kvar=1.239525286338795 Phases=2

New Load.load_p1ulv8906 conn=wye bus1=p1ulv8906.1.2 kV=0.2080002494301389 Vminpu=0.8 Vmaxpu=1.2 model=1 kW=14.7101 kvar=1.460290271871968 Phases=2

New Load.load_p1ulv8907 conn=wye bus1=p1ulv8907.1.2 kV=0.2080002494301389 Vminpu=0.8 Vmaxpu=1.2 model=1 kW=6.530070000000001 kvar=1.3294001873557917 Phases=2

New Load.load_p1ulv8910 conn=wye bus1=p1ulv8910.1.2.3 kV=0.48 Vminpu=0.8 Vmaxpu=1.2 model=1 kW=46.7305 kvar=9.489032740757338 Phases=3

New Load.load_p1ulv8912 conn=wye bus1=p1ulv8912.1.2 kV=0.2080002494301389 Vminpu=0.8 Vmaxpu=1.2 model=1 kW=11.63 kvar=0.840798942398307 Phases=2

New Load.load_p1ulv8914 conn=wye bus1=p1ulv8914.1.2 kV=0.2080002494301389 Vminpu=0.8 Vmaxpu=1.2 model=1 kW=12.75 kvar=1.0688120423865706 Phases=2

New Load.load_p1ulv9447 conn=wye bus1=p1ulv9447.1.2 kV=0.2080002494301389 Vminpu=0.8 Vmaxpu=1.2 model=1 kW=14.5301 kvar=1.43119084100543 Phases=2

New Load.load_p1ulv9450 conn=wye bus1=p1ulv9450.1.2 kV=0.2080002494301389 Vminpu=0.8 Vmaxpu=1.2 model=1 kW=12.5601 kvar=1.030131593999708 Phases=2

New Load.load_p1ulv9451 conn=wye bus1=p1ulv9451.1.2 kV=0.2080002494301389 Vminpu=0.8 Vmaxpu=1.2 model=1 kW=10.3201 kvar=2.1009794494592713 Phases=2

New Load.load_p1ulv9460 conn=wye bus1=p1ulv9460.1.2 kV=0.2080002494301389 Vminpu=0.8 Vmaxpu=1.2 model=1 kW=11.2401 kvar=2.2823996513922715 Phases=2

New Load.load_p1ulv9461 conn=wye bus1=p1ulv9461.1.2 kV=0.2080002494301389 Vminpu=0.8 Vmaxpu=1.2 model=1 kW=15.6201 kvar=1.6488525690409657 Phases=2

New Load.load_p1ulv12929 conn=wye bus1=p1ulv12929.1.2 kV=0.2080002494301389 Vminpu=0.8 Vmaxpu=1.2 model=1 kW=4.35004 kvar=0.8810345938741143 Phases=2

New Load.load_p1ulv12936 conn=wye bus1=p1ulv12936.1.2 kV=0.2080002494301389 Vminpu=0.8 Vmaxpu=1.2 model=1 kW=6.71007 kvar=1.3590228589431081 Phases=2

New Load.load_p1ulv12943 conn=wye bus1=p1ulv12943.1.2 kV=0.2080002494301389 Vminpu=0.8 Vmaxpu=1.2 model=1 kW=1.69002 kvar=0.33961982674506697 Phases=2

New Load.load_p1ulv12990 conn=wye bus1=p1ulv12990.1.2 kV=0.2080002494301389 Vminpu=0.8 Vmaxpu=1.2 model=1 kW=6.59007 kvar=1.341615065793748 Phases=2

New Load.load_p1ulv13023 conn=wye bus1=p1ulv13023.1.2 kV=0.2080002494301389 Vminpu=0.8 Vmaxpu=1.2 model=1 kW=4.98005 kvar=1.011242282890373 Phases=2

New Load.load_p1ulv13030 conn=wye bus1=p1ulv13030.1.2 kV=0.2080002494301389 Vminpu=0.8 Vmaxpu=1.2 model=1 kW=5.35005 kvar=1.0891701731164982 Phases=2

New Load.load_p1ulv13062 conn=wye bus1=p1ulv13062.1.2 kV=0.2080002494301389 Vminpu=0.8 Vmaxpu=1.2 model=1 kW=3.87004 kvar=0.7898859035382418 Phases=2

New Load.load_p1ulv13064 conn=wye bus1=p1ulv13064.1.2 kV=0.2080002494301389 Vminpu=0.8 Vmaxpu=1.2 model=1 kW=10.3801 kvar=2.1077692032470283 Phases=2

New Load.load_p1ulv13071 conn=wye bus1=p1ulv13071.1.2 kV=0.2080002494301389 Vminpu=0.8 Vmaxpu=1.2 model=1 kW=3.79004 kvar=0.7696004461493017 Phases=2

New Load.load_p1ulv13077 conn=wye bus1=p1ulv13077.1.2 kV=0.2080002494301389 Vminpu=0.8 Vmaxpu=1.2 model=1 kW=4.80005 kvar=0.9696571100672596 Phases=2

New Load.load_p1ulv13108 conn=wye bus1=p1ulv13108.1.2 kV=0.2080002494301389 Vminpu=0.8 Vmaxpu=1.2 model=1 kW=3.3200300000000005 kvar=0.6706785752516337 Phases=2

New Load.load_p1ulv13133 conn=wye bus1=p1ulv13133.1.2 kV=0.2080002494301389 Vminpu=0.8 Vmaxpu=1.2 model=1 kW=3.6900400000000007 kvar=0.7492945800859013 Phases=2

New Load.load_p1ulv13182 conn=wye bus1=p1ulv13182.1.2 kV=0.2080002494301389 Vminpu=0.8 Vmaxpu=1.2 model=1 kW=4.200040000000001 kvar=0.8506543699954566 Phases=2

New Load.load_p1ulv13186 conn=wye bus1=p1ulv13186.1.2 kV=0.2080002494301389 Vminpu=0.8 Vmaxpu=1.2 model=1 kW=2.83003 kvar=0.580558608517704 Phases=2

New Load.load_p1ulv13187 conn=wye bus1=p1ulv13187.1.2 kV=0.2080002494301389 Vminpu=0.8 Vmaxpu=1.2 model=1 kW=2.77003 kvar=0.5595731887375364 Phases=2

New Load.load_p1ulv13189 conn=wye bus1=p1ulv13189.1.2 kV=0.2080002494301389 Vminpu=0.8 Vmaxpu=1.2 model=1 kW=1.38001 kvar=0.28022298226153225 Phases=2

New Load.load_p1ulv13196 conn=wye bus1=p1ulv13196.1.2 kV=0.2080002494301389 Vminpu=0.8 Vmaxpu=1.2 model=1 kW=2.75003 kvar=0.5598547025122315 Phases=2

New Load.load_p1ulv13227 conn=wye bus1=p1ulv13227.1.2 kV=0.2080002494301389 Vminpu=0.8 Vmaxpu=1.2 model=1 kW=5.51006 kvar=1.1188654036130017 Phases=2

New Load.load_p1ulv13270 conn=wye bus1=p1ulv13270.1.2 kV=0.2080002494301389 Vminpu=0.8 Vmaxpu=1.2 model=1 kW=3.92004 kvar=0.8000910422905317 Phases=2

New Load.load_p1ulv13278 conn=wye bus1=p1ulv13278.1.2 kV=0.2080002494301389 Vminpu=0.8 Vmaxpu=1.2 model=1 kW=3.17003 kvar=0.6403771062023346 Phases=2

New Load.load_p1ulv13299 conn=wye bus1=p1ulv13299.1.2 kV=0.2080002494301389 Vminpu=0.8 Vmaxpu=1.2 model=1 kW=3.43003 kvar=0.70007864149034 Phases=2

New Load.load_p1ulv13309 conn=wye bus1=p1ulv13309.1.2 kV=0.2080002494301389 Vminpu=0.8 Vmaxpu=1.2 model=1 kW=5.23005 kvar=1.059267265977166 Phases=2

New Load.load_p1ulv13358 conn=wye bus1=p1ulv13358.1.2 kV=0.2080002494301389 Vminpu=0.8 Vmaxpu=1.2 model=1 kW=2.92003 kvar=0.5898746577868357 Phases=2

New Load.load_p1ulv13368 conn=wye bus1=p1ulv13368.1.2 kV=0.2080002494301389 Vminpu=0.8 Vmaxpu=1.2 model=1 kW=5.11005 kvar=1.0403106593646716 Phases=2

New Load.load_p1ulv13404 conn=wye bus1=p1ulv13404.1.2 kV=0.2080002494301389 Vminpu=0.8 Vmaxpu=1.2 model=1 kW=4.19004 kvar=0.8508239104029033 Phases=2

New Load.load_p1ulv13411 conn=wye bus1=p1ulv13411.1.2 kV=0.2080002494301389 Vminpu=0.8 Vmaxpu=1.2 model=1 kW=1.38001 kvar=0.28022298226153225 Phases=2

New Load.load_p1ulv13450 conn=wye bus1=p1ulv13450.1.2 kV=0.2080002494301389 Vminpu=0.8 Vmaxpu=1.2 model=1 kW=3.84004 kvar=0.7797533791810017 Phases=2

New Load.load_p1ulv13452 conn=wye bus1=p1ulv13452.1.2 kV=0.2080002494301389 Vminpu=0.8 Vmaxpu=1.2 model=1 kW=6.01006 kvar=1.2203947339300039 Phases=2

New Load.load_p1ulv13460 conn=wye bus1=p1ulv13460.1.2 kV=0.2080002494301389 Vminpu=0.8 Vmaxpu=1.2 model=1 kW=4.29004 kvar=0.8711297764663039 Phases=2

New Load.load_p1ulv13496 conn=wye bus1=p1ulv13496.1.2 kV=0.2080002494301389 Vminpu=0.8 Vmaxpu=1.2 model=1 kW=5.25005 kvar=1.0688120423865706 Phases=2

New Load.load_p1ulv13548 conn=wye bus1=p1ulv13548.1.2 kV=0.2080002494301389 Vminpu=0.8 Vmaxpu=1.2 model=1 kW=2.92003 kvar=0.5898746577868357 Phases=2

New Load.load_p1ulv13562 conn=wye bus1=p1ulv13562.1.2 kV=0.2080002494301389 Vminpu=0.8 Vmaxpu=1.2 model=1 kW=4.64005 kvar=0.9397717187211114 Phases=2

New Load.load_p1ulv13563 conn=wye bus1=p1ulv13563.1.2 kV=0.2080002494301389 Vminpu=0.8 Vmaxpu=1.2 model=1 kW=5.02005 kvar=1.0193646293157332 Phases=2

New Load.load_p1ulv13569 conn=wye bus1=p1ulv13569.1.2 kV=0.2080002494301389 Vminpu=0.8 Vmaxpu=1.2 model=1 kW=6.20006 kvar=1.2589758794504644 Phases=2

New Load.load_p1ulv13611 conn=wye bus1=p1ulv13611.1.2 kV=0.2080002494301389 Vminpu=0.8 Vmaxpu=1.2 model=1 kW=3.33003 kvar=0.6796683639857601 Phases=2

New Load.load_p1ulv13620 conn=wye bus1=p1ulv13620.1.2 kV=0.2080002494301389 Vminpu=0.8 Vmaxpu=1.2 model=1 kW=6.42006 kvar=1.300285734096111 Phases=2

New Load.load_p1ulv13657 conn=wye bus1=p1ulv13657.1.2 kV=0.2080002494301389 Vminpu=0.8 Vmaxpu=1.2 model=1 kW=4.18004 kvar=0.8509780077632708 Phases=2

New Load.load_p1ulv13670 conn=wye bus1=p1ulv13670.1.2 kV=0.2080002494301389 Vminpu=0.8 Vmaxpu=1.2 model=1 kW=10.1101 kvar=2.04764734290413 Phases=2

New Load.load_p1ulv13702 conn=wye bus1=p1ulv13702.1.2 kV=0.2080002494301389 Vminpu=0.8 Vmaxpu=1.2 model=1 kW=4.34004 kvar=0.8790092456155372 Phases=2

New Load.load_p1ulv13704 conn=wye bus1=p1ulv13704.1.2 kV=0.2080002494301389 Vminpu=0.8 Vmaxpu=1.2 model=1 kW=3.21003 kvar=0.6501428670480555 Phases=2

New Load.load_p1ulv13716 conn=wye bus1=p1ulv13716.1.2 kV=0.2080002494301389 Vminpu=0.8 Vmaxpu=1.2 model=1 kW=6.350060000000001 kvar=1.2894346785455655 Phases=2

New Load.load_p1ulv13736 conn=wye bus1=p1ulv13736.1.2 kV=0.2080002494301389 Vminpu=0.8 Vmaxpu=1.2 model=1 kW=4.40004 kvar=0.8911613351670004 Phases=2

New Load.load_p1ulv13742 conn=wye bus1=p1ulv13742.1.2 kV=0.2080002494301389 Vminpu=0.8 Vmaxpu=1.2 model=1 kW=3.08003 kvar=0.6302452033833459 Phases=2

New Load.load_p1ulv13822 conn=wye bus1=p1ulv13822.1.2 kV=0.2080002494301389 Vminpu=0.8 Vmaxpu=1.2 model=1 kW=1.38001 kvar=0.28022298226153225 Phases=2

New Load.load_p1ulv13824 conn=wye bus1=p1ulv13824.1.2 kV=0.2080002494301389 Vminpu=0.8 Vmaxpu=1.2 model=1 kW=4.37004 kvar=0.8896584561501336 Phases=2

New Load.load_p1ulv13830 conn=wye bus1=p1ulv13830.1.2 kV=0.2080002494301389 Vminpu=0.8 Vmaxpu=1.2 model=1 kW=5.86006 kvar=1.1899359348349032 Phases=2

New Load.load_p1ulv13858 conn=wye bus1=p1ulv13858.1.2 kV=0.2080002494301389 Vminpu=0.8 Vmaxpu=1.2 model=1 kW=6.45006 kvar=1.3097405446089656 Phases=2

New Load.load_p1ulv13868 conn=wye bus1=p1ulv13868.1.2 kV=0.2080002494301389 Vminpu=0.8 Vmaxpu=1.2 model=1 kW=4.09004 kvar=0.8305180443395029 Phases=2

New Load.load_p1ulv13870 conn=wye bus1=p1ulv13870.1.2 kV=0.2080002494301389 Vminpu=0.8 Vmaxpu=1.2 model=1 kW=1.62002 kvar=0.32980578945097516 Phases=2

New Load.load_p1ulv13918 conn=wye bus1=p1ulv13918.1.2 kV=0.2080002494301389 Vminpu=0.8 Vmaxpu=1.2 model=1 kW=3.64004 kvar=0.739141647054201 Phases=2

New Load.load_p1ulv13958 conn=wye bus1=p1ulv13958.1.2 kV=0.2080002494301389 Vminpu=0.8 Vmaxpu=1.2 model=1 kW=2.77003 kvar=0.5595731887375364 Phases=2

New Load.load_p1ulv13968 conn=wye bus1=p1ulv13968.1.2 kV=0.2080002494301389 Vminpu=0.8 Vmaxpu=1.2 model=1 kW=3.25003 kvar=0.659946738820333 Phases=2

New Load.load_p1ulv13970 conn=wye bus1=p1ulv13970.1.2 kV=0.2080002494301389 Vminpu=0.8 Vmaxpu=1.2 model=1 kW=3.35003 kvar=0.6802526048837334 Phases=2

New Load.load_p1ulv13980 conn=wye bus1=p1ulv13980.1.2 kV=0.2080002494301389 Vminpu=0.8 Vmaxpu=1.2 model=1 kW=2.81003 kvar=0.570600928141371 Phases=2

New Load.load_p1ulv14020 conn=wye bus1=p1ulv14020.1.2 kV=0.2080002494301389 Vminpu=0.8 Vmaxpu=1.2 model=1 kW=3.2600300000000004 kvar=0.6602696083409414 Phases=2

New Load.load_p1ulv14036 conn=wye bus1=p1ulv14036.1.2 kV=0.2080002494301389 Vminpu=0.8 Vmaxpu=1.2 model=1 kW=7.86008 kvar=1.6001653618769034 Phases=2

New Load.load_p1ulv14063 conn=wye bus1=p1ulv14063.1.2 kV=0.2080002494301389 Vminpu=0.8 Vmaxpu=1.2 model=1 kW=2.92003 kvar=0.5898746577868357 Phases=2

New Load.load_p1ulv14108 conn=wye bus1=p1ulv14108.1.2 kV=0.2080002494301389 Vminpu=0.8 Vmaxpu=1.2 model=1 kW=2.63003 kvar=0.5299077931576943 Phases=2

New Load.load_p1ulv14110 conn=wye bus1=p1ulv14110.1.2 kV=0.2080002494301389 Vminpu=0.8 Vmaxpu=1.2 model=1 kW=3.55004 kvar=0.7208663675971405 Phases=2

New Load.load_p1ulv14114 conn=wye bus1=p1ulv14114.1.2 kV=0.2080002494301389 Vminpu=0.8 Vmaxpu=1.2 model=1 kW=3.08003 kvar=0.6302452033833459 Phases=2

New Load.load_p1ulv14138 conn=wye bus1=p1ulv14138.1.2 kV=0.2080002494301389 Vminpu=0.8 Vmaxpu=1.2 model=1 kW=4.95005 kvar=1.0103189416154545 Phases=2

New Load.load_p1ulv14152 conn=wye bus1=p1ulv14152.1.2 kV=0.2080002494301389 Vminpu=0.8 Vmaxpu=1.2 model=1 kW=3.90004 kvar=0.7898939222381405 Phases=2

New Load.load_p1ulv14640 conn=wye bus1=p1ulv14640.1.2 kV=0.2080002494301389 Vminpu=0.8 Vmaxpu=1.2 model=1 kW=4.23004 kvar=0.8589462568282636 Phases=2

New Load.load_p1ulv14654 conn=wye bus1=p1ulv14654.1.2 kV=0.2080002494301389 Vminpu=0.8 Vmaxpu=1.2 model=1 kW=3.81004 kvar=0.769665394243948 Phases=2

New Load.load_p1ulv14656 conn=wye bus1=p1ulv14656.1.2 kV=0.2080002494301389 Vminpu=0.8 Vmaxpu=1.2 model=1 kW=5.890060000000001 kvar=1.199106114871181 Phases=2

New Load.load_p1ulv14668 conn=wye bus1=p1ulv14668.1.2 kV=0.2080002494301389 Vminpu=0.8 Vmaxpu=1.2 model=1 kW=3.52004 kvar=0.7092301716051945 Phases=2

New Load.load_p1ulv14697 conn=wye bus1=p1ulv14697.1.2 kV=0.2080002494301389 Vminpu=0.8 Vmaxpu=1.2 model=1 kW=5.19005 kvar=1.0511658729428572 Phases=2

New Load.load_p1ulv14740 conn=wye bus1=p1ulv14740.1.2 kV=0.2080002494301389 Vminpu=0.8 Vmaxpu=1.2 model=1 kW=3.88004 kvar=0.7899036155734878 Phases=2

New Load.load_p1ulv14753 conn=wye bus1=p1ulv14753.1.2 kV=0.2080002494301389 Vminpu=0.8 Vmaxpu=1.2 model=1 kW=1.85002 kvar=0.38047547394451825 Phases=2

New Load.load_p1ulv14770 conn=wye bus1=p1ulv14770.1.2 kV=0.2080002494301389 Vminpu=0.8 Vmaxpu=1.2 model=1 kW=4.36004 kvar=0.8898962633106831 Phases=2

New Load.load_p1ulv14780 conn=wye bus1=p1ulv14780.1.2 kV=0.2080002494301389 Vminpu=0.8 Vmaxpu=1.2 model=1 kW=2.90003 kvar=0.5903918986071232 Phases=2

New Load.load_p1ulv14795 conn=wye bus1=p1ulv14795.1.2 kV=0.2080002494301389 Vminpu=0.8 Vmaxpu=1.2 model=1 kW=2.45002 kvar=0.500055880917707 Phases=2

New Load.load_p1ulv14804 conn=wye bus1=p1ulv14804.1.2 kV=0.2080002494301389 Vminpu=0.8 Vmaxpu=1.2 model=1 kW=8.99009 kvar=1.8302142749381596 Phases=2

New Load.load_p1ulv14840 conn=wye bus1=p1ulv14840.1.2 kV=0.2080002494301389 Vminpu=0.8 Vmaxpu=1.2 model=1 kW=4.46004 kvar=0.910306540815263 Phases=2

New Load.load_p1ulv14855 conn=wye bus1=p1ulv14855.1.2 kV=0.2080002494301389 Vminpu=0.8 Vmaxpu=1.2 model=1 kW=6.15006 kvar=1.2488229464187643 Phases=2

New Load.load_p1ulv14884 conn=wye bus1=p1ulv14884.1.2 kV=0.2080002494301389 Vminpu=0.8 Vmaxpu=1.2 model=1 kW=4.22004 kvar=0.8591212600552419 Phases=2

New Load.load_p1ulv14891 conn=wye bus1=p1ulv14891.1.2 kV=0.2080002494301389 Vminpu=0.8 Vmaxpu=1.2 model=1 kW=3.41003 kvar=0.6906498322195993 Phases=2

New Load.load_p1ulv14898 conn=wye bus1=p1ulv14898.1.2 kV=0.2080002494301389 Vminpu=0.8 Vmaxpu=1.2 model=1 kW=6.89007 kvar=1.399088385874534 Phases=2

New Load.load_p1ulv14920 conn=wye bus1=p1ulv14920.1.2 kV=0.2080002494301389 Vminpu=0.8 Vmaxpu=1.2 model=1 kW=3.79004 kvar=0.7696004461493017 Phases=2

New Load.load_p1ulv14933 conn=wye bus1=p1ulv14933.1.2 kV=0.2080002494301389 Vminpu=0.8 Vmaxpu=1.2 model=1 kW=3.74004 kvar=0.7594475131176014 Phases=2

New Load.load_p1ulv14935 conn=wye bus1=p1ulv14935.1.2 kV=0.2080002494301389 Vminpu=0.8 Vmaxpu=1.2 model=1 kW=4.30004 kvar=0.8709078525812284 Phases=2

New Load.load_p1ulv14943 conn=wye bus1=p1ulv14943.1.2 kV=0.2080002494301389 Vminpu=0.8 Vmaxpu=1.2 model=1 kW=4.73005 kvar=0.960477617731872 Phases=2

New Load.load_p1ulv14980 conn=wye bus1=p1ulv14980.1.2 kV=0.2080002494301389 Vminpu=0.8 Vmaxpu=1.2 model=1 kW=3.09003 kvar=0.6306836979747686 Phases=2

New Load.load_p1ulv14995 conn=wye bus1=p1ulv14995.1.2 kV=0.2080002494301389 Vminpu=0.8 Vmaxpu=1.2 model=1 kW=5.87006 kvar=1.1888915798743651 Phases=2

New Load.load_p1ulv15034 conn=wye bus1=p1ulv15034.1.2 kV=0.2080002494301389 Vminpu=0.8 Vmaxpu=1.2 model=1 kW=2.38002 kvar=0.47953488966710467 Phases=2

New Load.load_p1ulv15039 conn=wye bus1=p1ulv15039.1.2 kV=0.2080002494301389 Vminpu=0.8 Vmaxpu=1.2 model=1 kW=4.42004 kvar=0.8998375215150975 Phases=2

New Load.load_p1ulv15041 conn=wye bus1=p1ulv15041.1.2 kV=0.2080002494301389 Vminpu=0.8 Vmaxpu=1.2 model=1 kW=5.59006 kvar=1.1292468671581726 Phases=2

New Load.load_p1ulv15078 conn=wye bus1=p1ulv15078.1.2 kV=0.2080002494301389 Vminpu=0.8 Vmaxpu=1.2 model=1 kW=5.600060000000001 kvar=1.1400675357543906 Phases=2

New Load.load_p1ulv15088 conn=wye bus1=p1ulv15088.1.2 kV=0.2080002494301389 Vminpu=0.8 Vmaxpu=1.2 model=1 kW=4.83005 kvar=0.9807834837952725 Phases=2

New Load.load_p1ulv15124 conn=wye bus1=p1ulv15124.1.2 kV=0.2080002494301389 Vminpu=0.8 Vmaxpu=1.2 model=1 kW=3.52004 kvar=0.7202814017128122 Phases=2

New Load.load_p1ulv15132 conn=wye bus1=p1ulv15132.1.2 kV=0.2080002494301389 Vminpu=0.8 Vmaxpu=1.2 model=1 kW=3.64004 kvar=0.739141647054201 Phases=2

New Load.load_p1ulv15137 conn=wye bus1=p1ulv15137.1.2 kV=0.2080002494301389 Vminpu=0.8 Vmaxpu=1.2 model=1 kW=6.350060000000001 kvar=1.2894346785455655 Phases=2

New Load.load_p1ulv15158 conn=wye bus1=p1ulv15158.1.2 kV=0.2080002494301389 Vminpu=0.8 Vmaxpu=1.2 model=1 kW=1.9800200000000001 kvar=0.39998343164662364 Phases=2

New Load.load_p1ulv15168 conn=wye bus1=p1ulv15168.1.2 kV=0.2080002494301389 Vminpu=0.8 Vmaxpu=1.2 model=1 kW=5.32005 kvar=1.0802822275059345 Phases=2

New Load.load_p1ulv15170 conn=wye bus1=p1ulv15170.1.2 kV=0.2080002494301389 Vminpu=0.8 Vmaxpu=1.2 model=1 kW=3.74004 kvar=0.7594475131176014 Phases=2

New Load.load_p1ulv15177 conn=wye bus1=p1ulv15177.1.2 kV=0.2080002494301389 Vminpu=0.8 Vmaxpu=1.2 model=1 kW=6.23006 kvar=1.271572534701827 Phases=2

New Load.load_p1ulv15185 conn=wye bus1=p1ulv15185.1.2 kV=0.2080002494301389 Vminpu=0.8 Vmaxpu=1.2 model=1 kW=4.54005 kvar=0.9195182361353397 Phases=2

New Load.load_p1ulv15212 conn=wye bus1=p1ulv15212.1.2 kV=0.2080002494301389 Vminpu=0.8 Vmaxpu=1.2 model=1 kW=3.39003 kvar=0.6901467391837689 Phases=2

New Load.load_p1ulv15232 conn=wye bus1=p1ulv15232.1.2 kV=0.2080002494301389 Vminpu=0.8 Vmaxpu=1.2 model=1 kW=3.54004 kvar=0.7206859710917335 Phases=2

New Load.load_p1ulv15244 conn=wye bus1=p1ulv15244.1.2 kV=0.2080002494301389 Vminpu=0.8 Vmaxpu=1.2 model=1 kW=9.47009 kvar=1.9180230290069313 Phases=2

New Load.load_p1ulv15277 conn=wye bus1=p1ulv15277.1.2 kV=0.2080002494301389 Vminpu=0.8 Vmaxpu=1.2 model=1 kW=4.17004 kvar=0.8489421946902781 Phases=2

New Load.load_p1ulv15279 conn=wye bus1=p1ulv15279.1.2 kV=0.2080002494301389 Vminpu=0.8 Vmaxpu=1.2 model=1 kW=2.75003 kvar=0.5598547025122315 Phases=2

New Load.load_p1ulv15284 conn=wye bus1=p1ulv15284.1.2 kV=0.2080002494301389 Vminpu=0.8 Vmaxpu=1.2 model=1 kW=3.23003 kvar=0.6592580864811803 Phases=2

New Load.load_p1ulv15311 conn=wye bus1=p1ulv15311.1.2 kV=0.2080002494301389 Vminpu=0.8 Vmaxpu=1.2 model=1 kW=3.86004 kvar=0.7797658839270477 Phases=2

New Load.load_p1ulv15319 conn=wye bus1=p1ulv15319.1.2 kV=0.2080002494301389 Vminpu=0.8 Vmaxpu=1.2 model=1 kW=4.37004 kvar=0.8896584561501336 Phases=2

New Load.load_p1ulv15321 conn=wye bus1=p1ulv15321.1.2 kV=0.2080002494301389 Vminpu=0.8 Vmaxpu=1.2 model=1 kW=3.3200300000000005 kvar=0.6706785752516337 Phases=2

New Load.load_p1ulv15329 conn=wye bus1=p1ulv15329.1.2 kV=0.2080002494301389 Vminpu=0.8 Vmaxpu=1.2 model=1 kW=3.79004 kvar=0.7696004461493017 Phases=2

New Load.load_p1ulv15363 conn=wye bus1=p1ulv15363.1.2 kV=0.2080002494301389 Vminpu=0.8 Vmaxpu=1.2 model=1 kW=4.76005 kvar=0.9690572018099246 Phases=2

New Load.load_p1ulv15406 conn=wye bus1=p1ulv15406.1.2 kV=0.2080002494301389 Vminpu=0.8 Vmaxpu=1.2 model=1 kW=3.66004 kvar=0.7393639251946486 Phases=2

New Load.load_p1ulv15411 conn=wye bus1=p1ulv15411.1.2 kV=0.2080002494301389 Vminpu=0.8 Vmaxpu=1.2 model=1 kW=2.43002 kvar=0.48960906739811333 Phases=2

New Load.load_p1ulv15437 conn=wye bus1=p1ulv15437.1.2 kV=0.2080002494301389 Vminpu=0.8 Vmaxpu=1.2 model=1 kW=3.10003 kvar=0.6294879397252322 Phases=2

New Load.load_p1ulv15439 conn=wye bus1=p1ulv15439.1.2 kV=0.2080002494301389 Vminpu=0.8 Vmaxpu=1.2 model=1 kW=5.08005 kvar=1.0288870420985081 Phases=2

New Load.load_p1ulv15447 conn=wye bus1=p1ulv15447.1.2 kV=0.2080002494301389 Vminpu=0.8 Vmaxpu=1.2 model=1 kW=8.82009 kvar=1.790995662071375 Phases=2

New Load.load_p1ulv15497 conn=wye bus1=p1ulv15497.1.2 kV=0.2080002494301389 Vminpu=0.8 Vmaxpu=1.2 model=1 kW=5.72006 kvar=1.1585113559957074 Phases=2

New Load.load_p1ulv15536 conn=wye bus1=p1ulv15536.1.2 kV=0.2080002494301389 Vminpu=0.8 Vmaxpu=1.2 model=1 kW=3.2600300000000004 kvar=0.6602696083409414 Phases=2

New Load.load_p1ulv15563 conn=wye bus1=p1ulv15563.1.2 kV=0.2080002494301389 Vminpu=0.8 Vmaxpu=1.2 model=1 kW=3.90004 kvar=0.7898939222381405 Phases=2

New Load.load_p1ulv15576 conn=wye bus1=p1ulv15576.1.2 kV=0.2080002494301389 Vminpu=0.8 Vmaxpu=1.2 model=1 kW=4.82005 kvar=0.9787528971889325 Phases=2

New Load.load_p1ulv15584 conn=wye bus1=p1ulv15584.1.2 kV=0.2080002494301389 Vminpu=0.8 Vmaxpu=1.2 model=1 kW=4.31004 kvar=0.8706702910749454 Phases=2

New Load.load_p1ulv15586 conn=wye bus1=p1ulv15586.1.2 kV=0.2080002494301389 Vminpu=0.8 Vmaxpu=1.2 model=1 kW=4.64005 kvar=0.9397717187211114 Phases=2

New Load.load_p1ulv15619 conn=wye bus1=p1ulv15619.1.2 kV=0.2080002494301389 Vminpu=0.8 Vmaxpu=1.2 model=1 kW=1.38001 kvar=0.28022298226153225 Phases=2

New Load.load_p1ulv15621 conn=wye bus1=p1ulv15621.1.2 kV=0.2080002494301389 Vminpu=0.8 Vmaxpu=1.2 model=1 kW=3.12003 kvar=0.6302766165192346 Phases=2

New Load.load_p1ulv15633 conn=wye bus1=p1ulv15633.1.2 kV=0.2080002494301389 Vminpu=0.8 Vmaxpu=1.2 model=1 kW=3.42003 kvar=0.6998170481869153 Phases=2

New Load.load_p1ulv15682 conn=wye bus1=p1ulv15682.1.2 kV=0.2080002494301389 Vminpu=0.8 Vmaxpu=1.2 model=1 kW=3.18003 kvar=0.6507075106785133 Phases=2

New Load.load_p1ulv15688 conn=wye bus1=p1ulv15688.1.2 kV=0.2080002494301389 Vminpu=0.8 Vmaxpu=1.2 model=1 kW=7.070070000000001 kvar=1.4393340932974013 Phases=2

New Load.load_p1ulv15690 conn=wye bus1=p1ulv15690.1.2 kV=0.2080002494301389 Vminpu=0.8 Vmaxpu=1.2 model=1 kW=1.47001 kvar=0.3000331203450741 Phases=2

New Load.load_p1ulv15715 conn=wye bus1=p1ulv15715.1.2 kV=0.2080002494301389 Vminpu=0.8 Vmaxpu=1.2 model=1 kW=5.76006 kvar=1.1696300687715029 Phases=2

New Load.load_p1ulv15727 conn=wye bus1=p1ulv15727.1.2 kV=0.2080002494301389 Vminpu=0.8 Vmaxpu=1.2 model=1 kW=4.15004 kvar=0.8405276287025704 Phases=2

New Load.load_p1ulv15733 conn=wye bus1=p1ulv15733.1.2 kV=0.2080002494301389 Vminpu=0.8 Vmaxpu=1.2 model=1 kW=3.08003 kvar=0.6302452033833459 Phases=2

New Load.load_p1ulv15769 conn=wye bus1=p1ulv15769.1.2 kV=0.2080002494301389 Vminpu=0.8 Vmaxpu=1.2 model=1 kW=3.39003 kvar=0.6901467391837689 Phases=2

New Load.load_p1ulv15780 conn=wye bus1=p1ulv15780.1.2 kV=0.2080002494301389 Vminpu=0.8 Vmaxpu=1.2 model=1 kW=1.70002 kvar=0.3496264446952789 Phases=2

New Load.load_p1ulv15809 conn=wye bus1=p1ulv15809.1.2 kV=0.2080002494301389 Vminpu=0.8 Vmaxpu=1.2 model=1 kW=3.9600400000000002 kvar=0.7999668632932473 Phases=2

New Load.load_p1ulv15824 conn=wye bus1=p1ulv15824.1.2 kV=0.2080002494301389 Vminpu=0.8 Vmaxpu=1.2 model=1 kW=7.23007 kvar=1.4681283304900956 Phases=2

New Load.load_p1ulv15834 conn=wye bus1=p1ulv15834.1.2 kV=0.2080002494301389 Vminpu=0.8 Vmaxpu=1.2 model=1 kW=2.42002 kvar=0.49013832927219847 Phases=2

New Load.load_p1ulv15835 conn=wye bus1=p1ulv15835.1.2 kV=0.2080002494301389 Vminpu=0.8 Vmaxpu=1.2 model=1 kW=3.56004 kvar=0.7191629458284491 Phases=2

New Load.load_p1ulv16455 conn=wye bus1=p1ulv16455.1.2 kV=0.2080002494301389 Vminpu=0.8 Vmaxpu=1.2 model=1 kW=11.7101 kvar=2.3778372218902537 Phases=2

New Load.load_p1ulv16462 conn=wye bus1=p1ulv16462.1.2 kV=0.2080002494301389 Vminpu=0.8 Vmaxpu=1.2 model=1 kW=3.9400400000000007 kvar=0.8000592452444024 Phases=2

New Load.load_p1ulv16464 conn=wye bus1=p1ulv16464.1.2 kV=0.2080002494301389 Vminpu=0.8 Vmaxpu=1.2 model=1 kW=16.5502 kvar=3.3606614452248977 Phases=2

New Load.load_p1ulv16505 conn=wye bus1=p1ulv16505.1.2 kV=0.2080002494301389 Vminpu=0.8 Vmaxpu=1.2 model=1 kW=3.51004 kvar=0.7109053401536299 Phases=2

New Load.load_p1ulv16507 conn=wye bus1=p1ulv16507.1.2 kV=0.2080002494301389 Vminpu=0.8 Vmaxpu=1.2 model=1 kW=4.670050000000001 kvar=0.9507348841529898 Phases=2

New Load.load_p1ulv16514 conn=wye bus1=p1ulv16514.1.2 kV=0.2080002494301389 Vminpu=0.8 Vmaxpu=1.2 model=1 kW=1.57002 kvar=0.3196267240860112 Phases=2

New Load.load_p1ulv16520 conn=wye bus1=p1ulv16520.1.2 kV=0.2080002494301389 Vminpu=0.8 Vmaxpu=1.2 model=1 kW=10.5201 kvar=2.141695710919126 Phases=2

New Load.load_p1ulv16565 conn=wye bus1=p1ulv16565.1.2 kV=0.2080002494301389 Vminpu=0.8 Vmaxpu=1.2 model=1 kW=5.62006 kvar=1.141201856282742 Phases=2

New Load.load_p1ulv16597 conn=wye bus1=p1ulv16597.1.2 kV=0.2080002494301389 Vminpu=0.8 Vmaxpu=1.2 model=1 kW=3.02003 kvar=0.6100756371530351 Phases=2

New Load.load_p1ulv16605 conn=wye bus1=p1ulv16605.1.2 kV=0.2080002494301389 Vminpu=0.8 Vmaxpu=1.2 model=1 kW=3.0300300000000004 kvar=0.6105012150057635 Phases=2

New Load.load_p1ulv16632 conn=wye bus1=p1ulv16632.1.2 kV=0.2080002494301389 Vminpu=0.8 Vmaxpu=1.2 model=1 kW=3.42003 kvar=0.6998170481869153 Phases=2

New Load.load_p1ulv16645 conn=wye bus1=p1ulv16645.1.2 kV=0.2080002494301389 Vminpu=0.8 Vmaxpu=1.2 model=1 kW=3.47003 kvar=0.6991539790386396 Phases=2

New Load.load_p1ulv16647 conn=wye bus1=p1ulv16647.1.2 kV=0.2080002494301389 Vminpu=0.8 Vmaxpu=1.2 model=1 kW=3.60004 kvar=0.7291334744808246 Phases=2

New Load.load_p1ulv16653 conn=wye bus1=p1ulv16653.1.2 kV=0.2080002494301389 Vminpu=0.8 Vmaxpu=1.2 model=1 kW=1.45001 kvar=0.29970654550215514 Phases=2

New Load.load_p1ulv16661 conn=wye bus1=p1ulv16661.1.2 kV=0.2080002494301389 Vminpu=0.8 Vmaxpu=1.2 model=1 kW=4.50005 kvar=0.9090541719686612 Phases=2

New Load.load_p1ulv16678 conn=wye bus1=p1ulv16678.1.2 kV=0.2080002494301389 Vminpu=0.8 Vmaxpu=1.2 model=1 kW=4.95005 kvar=1.0103189416154545 Phases=2

New Load.load_p1ulv16702 conn=wye bus1=p1ulv16702.1.2 kV=0.2080002494301389 Vminpu=0.8 Vmaxpu=1.2 model=1 kW=3.17003 kvar=0.6403771062023346 Phases=2

New Load.load_p1ulv16736 conn=wye bus1=p1ulv16736.1.2 kV=0.2080002494301389 Vminpu=0.8 Vmaxpu=1.2 model=1 kW=4.65005 kvar=0.9393556410179604 Phases=2

New Load.load_p1ulv16747 conn=wye bus1=p1ulv16747.1.2 kV=0.2080002494301389 Vminpu=0.8 Vmaxpu=1.2 model=1 kW=3.62004 kvar=0.7407437090079797 Phases=2

New Load.load_p1ulv16749 conn=wye bus1=p1ulv16749.1.2 kV=0.2080002494301389 Vminpu=0.8 Vmaxpu=1.2 model=1 kW=3.97004 kvar=0.8102961810428216 Phases=2

New Load.load_p1ulv16756 conn=wye bus1=p1ulv16756.1.2 kV=0.2080002494301389 Vminpu=0.8 Vmaxpu=1.2 model=1 kW=6.21006 kvar=1.2610064660568046 Phases=2

New Load.load_p1ulv16758 conn=wye bus1=p1ulv16758.1.2 kV=0.2080002494301389 Vminpu=0.8 Vmaxpu=1.2 model=1 kW=11.7401 kvar=2.3777791090522133 Phases=2

New Load.load_p1ulv16794 conn=wye bus1=p1ulv16794.1.2 kV=0.2080002494301389 Vminpu=0.8 Vmaxpu=1.2 model=1 kW=2.99003 kvar=0.6102734204701886 Phases=2

New Load.load_p1ulv16796 conn=wye bus1=p1ulv16796.1.2 kV=0.2080002494301389 Vminpu=0.8 Vmaxpu=1.2 model=1 kW=3.50004 kvar=0.7107134345654403 Phases=2

New Load.load_p1ulv16803 conn=wye bus1=p1ulv16803.1.2 kV=0.2080002494301389 Vminpu=0.8 Vmaxpu=1.2 model=1 kW=4.34004 kvar=0.8790092456155372 Phases=2

New Load.load_p1ulv16834 conn=wye bus1=p1ulv16834.1.2 kV=0.2080002494301389 Vminpu=0.8 Vmaxpu=1.2 model=1 kW=3.52004 kvar=0.7092301716051945 Phases=2

New Load.load_p1ulv16843 conn=wye bus1=p1ulv16843.1.2 kV=0.2080002494301389 Vminpu=0.8 Vmaxpu=1.2 model=1 kW=5.88006 kvar=1.1909169281329426 Phases=2

New Load.load_p1ulv16878 conn=wye bus1=p1ulv16878.1.2 kV=0.2080002494301389 Vminpu=0.8 Vmaxpu=1.2 model=1 kW=4.36004 kvar=0.8898962633106831 Phases=2

New Load.load_p1ulv16880 conn=wye bus1=p1ulv16880.1.2 kV=0.2080002494301389 Vminpu=0.8 Vmaxpu=1.2 model=1 kW=2.96003 kvar=0.5995091605836256 Phases=2

New Load.load_p1ulv16886 conn=wye bus1=p1ulv16886.1.2 kV=0.2080002494301389 Vminpu=0.8 Vmaxpu=1.2 model=1 kW=2.13002 kvar=0.4302849006959229 Phases=2

New Load.load_p1ulv16896 conn=wye bus1=p1ulv16896.1.2 kV=0.2080002494301389 Vminpu=0.8 Vmaxpu=1.2 model=1 kW=4.69005 kvar=0.9498984600139976 Phases=2

New Load.load_p1ulv16898 conn=wye bus1=p1ulv16898.1.2 kV=0.2080002494301389 Vminpu=0.8 Vmaxpu=1.2 model=1 kW=3.65004 kvar=0.7392602157737106 Phases=2

New Load.load_p1ulv16942 conn=wye bus1=p1ulv16942.1.2 kV=0.2080002494301389 Vminpu=0.8 Vmaxpu=1.2 model=1 kW=3.00003 kvar=0.6107500293370508 Phases=2

New Load.load_p1ulv16957 conn=wye bus1=p1ulv16957.1.2 kV=0.2080002494301389 Vminpu=0.8 Vmaxpu=1.2 model=1 kW=1.40001 kvar=0.2798584994418662 Phases=2

New Load.load_p1ulv16988 conn=wye bus1=p1ulv16988.1.2 kV=0.2080002494301389 Vminpu=0.8 Vmaxpu=1.2 model=1 kW=1.38001 kvar=0.28022298226153225 Phases=2

New Load.load_p1ulv16994 conn=wye bus1=p1ulv16994.1.2 kV=0.2080002494301389 Vminpu=0.8 Vmaxpu=1.2 model=1 kW=5.87006 kvar=1.1888915798743651 Phases=2

New Load.load_p1ulv17002 conn=wye bus1=p1ulv17002.1.2 kV=0.2080002494301389 Vminpu=0.8 Vmaxpu=1.2 model=1 kW=1.56002 kvar=0.32002595041741205 Phases=2

New Load.load_p1ulv17043 conn=wye bus1=p1ulv17043.1.2 kV=0.2080002494301389 Vminpu=0.8 Vmaxpu=1.2 model=1 kW=6.43006 kvar=1.3090400208127908 Phases=2

New Load.load_p1ulv17084 conn=wye bus1=p1ulv17084.1.2 kV=0.2080002494301389 Vminpu=0.8 Vmaxpu=1.2 model=1 kW=3.41003 kvar=0.6906498322195993 Phases=2

New Load.load_p1ulv17099 conn=wye bus1=p1ulv17099.1.2 kV=0.2080002494301389 Vminpu=0.8 Vmaxpu=1.2 model=1 kW=2.94003 kvar=0.6000682817178988 Phases=2

New Load.load_p1ulv17125 conn=wye bus1=p1ulv17125.1.2 kV=0.2080002494301389 Vminpu=0.8 Vmaxpu=1.2 model=1 kW=3.31003 kvar=0.6703963496338274 Phases=2

New Load.load_p1ulv17131 conn=wye bus1=p1ulv17131.1.2 kV=0.2080002494301389 Vminpu=0.8 Vmaxpu=1.2 model=1 kW=5.90006 kvar=1.2011419279441737 Phases=2

New Load.load_p1ulv17169 conn=wye bus1=p1ulv17169.1.2 kV=0.2080002494301389 Vminpu=0.8 Vmaxpu=1.2 model=1 kW=4.57005 kvar=0.9303767534230621 Phases=2

New Load.load_p1ulv17171 conn=wye bus1=p1ulv17171.1.2 kV=0.2080002494301389 Vminpu=0.8 Vmaxpu=1.2 model=1 kW=3.37003 kvar=0.6807790649347335 Phases=2

New Load.load_p1ulv17178 conn=wye bus1=p1ulv17178.1.2 kV=0.2080002494301389 Vminpu=0.8 Vmaxpu=1.2 model=1 kW=2.99003 kvar=0.6102734204701886 Phases=2

New Load.load_p1ulv17216 conn=wye bus1=p1ulv17216.1.2 kV=0.2080002494301389 Vminpu=0.8 Vmaxpu=1.2 model=1 kW=3.23003 kvar=0.6592580864811803 Phases=2

New Load.load_p1ulv17259 conn=wye bus1=p1ulv17259.1.2 kV=0.2080002494301389 Vminpu=0.8 Vmaxpu=1.2 model=1 kW=3.52004 kvar=0.7202814017128122 Phases=2

New Load.load_p1ulv17290 conn=wye bus1=p1ulv17290.1.2 kV=0.2080002494301389 Vminpu=0.8 Vmaxpu=1.2 model=1 kW=6.68007 kvar=1.359937383450683 Phases=2

New Load.load_p1ulv17302 conn=wye bus1=p1ulv17302.1.2 kV=0.2080002494301389 Vminpu=0.8 Vmaxpu=1.2 model=1 kW=3.79004 kvar=0.7696004461493017 Phases=2

New Load.load_p1ulv17304 conn=wye bus1=p1ulv17304.1.2 kV=0.2080002494301389 Vminpu=0.8 Vmaxpu=1.2 model=1 kW=3.2800300000000004 kvar=0.6694632252334703 Phases=2

New Load.load_p1ulv17308 conn=wye bus1=p1ulv17308.1.2 kV=0.2080002494301389 Vminpu=0.8 Vmaxpu=1.2 model=1 kW=4.73005 kvar=0.960477617731872 Phases=2

New Load.load_p1ulv17315 conn=wye bus1=p1ulv17315.1.2 kV=0.2080002494301389 Vminpu=0.8 Vmaxpu=1.2 model=1 kW=7.29007 kvar=1.4803118501281356 Phases=2

New Load.load_p1ulv17320 conn=wye bus1=p1ulv17320.1.2 kV=0.2080002494301389 Vminpu=0.8 Vmaxpu=1.2 model=1 kW=3.81004 kvar=0.769665394243948 Phases=2

New Load.load_p1ulv17329 conn=wye bus1=p1ulv17329.1.2 kV=0.2080002494301389 Vminpu=0.8 Vmaxpu=1.2 model=1 kW=6.88007 kvar=1.4006536449105385 Phases=2

New Load.load_p1ulv17335 conn=wye bus1=p1ulv17335.1.2 kV=0.2080002494301389 Vminpu=0.8 Vmaxpu=1.2 model=1 kW=5.560060000000001 kvar=1.129018336644702 Phases=2

New Load.load_p1ulv17375 conn=wye bus1=p1ulv17375.1.2 kV=0.2080002494301389 Vminpu=0.8 Vmaxpu=1.2 model=1 kW=1.78002 kvar=0.35958147291422454 Phases=2

New Load.load_p1ulv17402 conn=wye bus1=p1ulv17402.1.2 kV=0.2080002494301389 Vminpu=0.8 Vmaxpu=1.2 model=1 kW=3.0100300000000004 kvar=0.6096359018765115 Phases=2

New Load.load_p1ulv17443 conn=wye bus1=p1ulv17443.1.2 kV=0.2080002494301389 Vminpu=0.8 Vmaxpu=1.2 model=1 kW=3.76004 kvar=0.7595649045608481 Phases=2

New Load.load_p1ulv17445 conn=wye bus1=p1ulv17445.1.2 kV=0.2080002494301389 Vminpu=0.8 Vmaxpu=1.2 model=1 kW=2.95003 kvar=0.6005709639720869 Phases=2

New Load.load_p1ulv17453 conn=wye bus1=p1ulv17453.1.2 kV=0.2080002494301389 Vminpu=0.8 Vmaxpu=1.2 model=1 kW=6.05006 kvar=1.2285170803553642 Phases=2

New Load.load_p1ulv17498 conn=wye bus1=p1ulv17498.1.2 kV=0.2080002494301389 Vminpu=0.8 Vmaxpu=1.2 model=1 kW=4.38004 kvar=0.8894050559233643 Phases=2

New Load.load_p1ulv18112 conn=wye bus1=p1ulv18112.1.2 kV=0.2080002494301389 Vminpu=0.8 Vmaxpu=1.2 model=1 kW=3.11003 kvar=0.6298893844622836 Phases=2

New Load.load_p1ulv18156 conn=wye bus1=p1ulv18156.1.2 kV=0.2080002494301389 Vminpu=0.8 Vmaxpu=1.2 model=1 kW=4.12004 kvar=0.8409115972996914 Phases=2

New Load.load_p1ulv18158 conn=wye bus1=p1ulv18158.1.2 kV=0.2080002494301389 Vminpu=0.8 Vmaxpu=1.2 model=1 kW=6.33006 kvar=1.2787341144680489 Phases=2

New Load.load_p1ulv18162 conn=wye bus1=p1ulv18162.1.2 kV=0.2080002494301389 Vminpu=0.8 Vmaxpu=1.2 model=1 kW=2.99003 kvar=0.6102734204701886 Phases=2

New Load.load_p1ulv18165 conn=wye bus1=p1ulv18165.1.2 kV=0.2080002494301389 Vminpu=0.8 Vmaxpu=1.2 model=1 kW=7.05007 kvar=1.4315777715759745 Phases=2

New Load.load_p1ulv18173 conn=wye bus1=p1ulv18173.1.2 kV=0.2080002494301389 Vminpu=0.8 Vmaxpu=1.2 model=1 kW=5.05005 kvar=1.0201595584827583 Phases=2

New Load.load_p1ulv18200 conn=wye bus1=p1ulv16898.1.2 kV=0.2080002494301389 Vminpu=0.8 Vmaxpu=1.2 model=1 kW=3.55004 kvar=0.7208663675971405 Phases=2

New Load.load_p1ulv18213 conn=wye bus1=p1ulv18213.1.2 kV=0.2080002494301389 Vminpu=0.8 Vmaxpu=1.2 model=1 kW=10.0001 kvar=2.0306069122061063 Phases=2

New Load.load_p1ulv18245 conn=wye bus1=p1ulv18245.1.2 kV=0.2080002494301389 Vminpu=0.8 Vmaxpu=1.2 model=1 kW=3.61004 kvar=0.7292634355115489 Phases=2

New Load.load_p1ulv18256 conn=wye bus1=p1ulv18256.1.2 kV=0.2080002494301389 Vminpu=0.8 Vmaxpu=1.2 model=1 kW=5.54006 kvar=1.1191463774750727 Phases=2

New Load.load_p1ulv18262 conn=wye bus1=p1ulv18262.1.2 kV=0.2080002494301389 Vminpu=0.8 Vmaxpu=1.2 model=1 kW=3.2600300000000004 kvar=0.6602696083409414 Phases=2

New Load.load_p1ulv18279 conn=wye bus1=p1ulv18279.1.2 kV=0.2080002494301389 Vminpu=0.8 Vmaxpu=1.2 model=1 kW=3.08003 kvar=0.6302452033833459 Phases=2

New Load.load_p1ulv18298 conn=wye bus1=p1ulv18298.1.2 kV=0.2080002494301389 Vminpu=0.8 Vmaxpu=1.2 model=1 kW=3.47003 kvar=0.6991539790386396 Phases=2

New Load.load_p1ulv18307 conn=wye bus1=p1ulv18307.1.2 kV=0.2080002494301389 Vminpu=0.8 Vmaxpu=1.2 model=1 kW=6.04006 kvar=1.2296433109660727 Phases=2

New Load.load_p1ulv18349 conn=wye bus1=p1ulv18349.1.2 kV=0.2080002494301389 Vminpu=0.8 Vmaxpu=1.2 model=1 kW=4.35004 kvar=0.8810345938741143 Phases=2

New Load.load_p1ulv18359 conn=wye bus1=p1ulv18359.1.2 kV=0.2080002494301389 Vminpu=0.8 Vmaxpu=1.2 model=1 kW=4.79005 kvar=0.9701519425997696 Phases=2

New Load.load_p1ulv18393 conn=wye bus1=p1ulv18393.1.2 kV=0.2080002494301389 Vminpu=0.8 Vmaxpu=1.2 model=1 kW=4.43004 kvar=0.8995579889550643 Phases=2

New Load.load_p1ulv18395 conn=wye bus1=p1ulv18395.1.2 kV=0.2080002494301389 Vminpu=0.8 Vmaxpu=1.2 model=1 kW=3.66004 kvar=0.7393639251946486 Phases=2

New Load.load_p1ulv18401 conn=wye bus1=p1ulv18401.1.2 kV=0.2080002494301389 Vminpu=0.8 Vmaxpu=1.2 model=1 kW=4.14004 kvar=0.8406709773712032 Phases=2

New Load.load_p1ulv18443 conn=wye bus1=p1ulv18443.1.2 kV=0.2080002494301389 Vminpu=0.8 Vmaxpu=1.2 model=1 kW=3.9800400000000002 kvar=0.8102617463034154 Phases=2

New Load.load_p1ulv18450 conn=wye bus1=p1ulv18450.1.2 kV=0.2080002494301389 Vminpu=0.8 Vmaxpu=1.2 model=1 kW=5.78006 kvar=1.1706634455471703 Phases=2

New Load.load_p1ulv18452 conn=wye bus1=p1ulv18452.1.2 kV=0.2080002494301389 Vminpu=0.8 Vmaxpu=1.2 model=1 kW=3.29003 kvar=0.6697886084538411 Phases=2

New Load.load_p1ulv18493 conn=wye bus1=p1ulv18493.1.2 kV=0.2080002494301389 Vminpu=0.8 Vmaxpu=1.2 model=1 kW=3.66004 kvar=0.7393639251946486 Phases=2

New Load.load_p1ulv18532 conn=wye bus1=p1ulv18532.1.2 kV=0.2080002494301389 Vminpu=0.8 Vmaxpu=1.2 model=1 kW=1.38001 kvar=0.28022298226153225 Phases=2

New Load.load_p1ulv18562 conn=wye bus1=p1ulv18562.1.2 kV=0.2080002494301389 Vminpu=0.8 Vmaxpu=1.2 model=1 kW=3.72004 kvar=0.7495268825292292 Phases=2

New Load.load_p1ulv18564 conn=wye bus1=p1ulv18564.1.2 kV=0.2080002494301389 Vminpu=0.8 Vmaxpu=1.2 model=1 kW=3.17003 kvar=0.6403771062023346 Phases=2

New Load.load_p1ulv18571 conn=wye bus1=p1ulv18571.1.2 kV=0.2080002494301389 Vminpu=0.8 Vmaxpu=1.2 model=1 kW=4.73005 kvar=0.960477617731872 Phases=2

New Load.load_p1ulv18606 conn=wye bus1=p1ulv18606.1.2 kV=0.2080002494301389 Vminpu=0.8 Vmaxpu=1.2 model=1 kW=2.7800300000000004 kvar=0.5601303263507202 Phases=2

New Load.load_p1ulv18613 conn=wye bus1=p1ulv18613.1.2 kV=0.2080002494301389 Vminpu=0.8 Vmaxpu=1.2 model=1 kW=5.090050000000001 kvar=1.0309123903570856 Phases=2

New Load.load_p1ulv18618 conn=wye bus1=p1ulv18618.1.2 kV=0.2080002494301389 Vminpu=0.8 Vmaxpu=1.2 model=1 kW=5.65006 kvar=1.1502466011193542 Phases=2

New Load.load_p1ulv18698 conn=wye bus1=p1ulv18698.1.2 kV=0.2080002494301389 Vminpu=0.8 Vmaxpu=1.2 model=1 kW=3.0300300000000004 kvar=0.6200140497357622 Phases=2

New Load.load_p1ulv18705 conn=wye bus1=p1ulv18705.1.2 kV=0.2080002494301389 Vminpu=0.8 Vmaxpu=1.2 model=1 kW=4.04004 kvar=0.8203651113078028 Phases=2

New Load.load_p1ulv18707 conn=wye bus1=p1ulv18707.1.2 kV=0.2080002494301389 Vminpu=0.8 Vmaxpu=1.2 model=1 kW=10.4201 kvar=2.121337580189199 Phases=2

New Load.load_p1ulv18741 conn=wye bus1=p1ulv18741.1.2 kV=0.2080002494301389 Vminpu=0.8 Vmaxpu=1.2 model=1 kW=3.25003 kvar=0.659946738820333 Phases=2

New Load.load_p1ulv18775 conn=wye bus1=p1ulv18775.1.2 kV=0.2080002494301389 Vminpu=0.8 Vmaxpu=1.2 model=1 kW=3.70004 kvar=0.7493869570665965 Phases=2

New Load.load_p1ulv18776 conn=wye bus1=p1ulv18776.1.2 kV=0.2080002494301389 Vminpu=0.8 Vmaxpu=1.2 model=1 kW=3.31003 kvar=0.6703963496338274 Phases=2

New Load.load_p1ulv18790 conn=wye bus1=p1ulv18790.1.2 kV=0.2080002494301389 Vminpu=0.8 Vmaxpu=1.2 model=1 kW=6.25006 kvar=1.269128812482165 Phases=2

New Load.load_p1ulv18823 conn=wye bus1=p1ulv18823.1.2 kV=0.2080002494301389 Vminpu=0.8 Vmaxpu=1.2 model=1 kW=3.51004 kvar=0.7109053401536299 Phases=2

New Load.load_p1ulv18825 conn=wye bus1=p1ulv18825.1.2 kV=0.2080002494301389 Vminpu=0.8 Vmaxpu=1.2 model=1 kW=2.75003 kvar=0.5598547025122315 Phases=2

New Load.load_p1ulv18854 conn=wye bus1=p1ulv18854.1.2 kV=0.2080002494301389 Vminpu=0.8 Vmaxpu=1.2 model=1 kW=4.200040000000001 kvar=0.8506543699954566 Phases=2

New Load.load_p1ulv18867 conn=wye bus1=p1ulv18867.1.2 kV=0.2080002494301389 Vminpu=0.8 Vmaxpu=1.2 model=1 kW=4.66005 kvar=0.951129136852173 Phases=2

New Load.load_p1ulv18875 conn=wye bus1=p1ulv18875.1.2 kV=0.2080002494301389 Vminpu=0.8 Vmaxpu=1.2 model=1 kW=9.18009 kvar=1.8592879295081928 Phases=2

New Load.load_p1ulv18912 conn=wye bus1=p1ulv18912.1.2 kV=0.2080002494301389 Vminpu=0.8 Vmaxpu=1.2 model=1 kW=3.17003 kvar=0.6403771062023346 Phases=2

New Load.load_p1ulv18924 conn=wye bus1=p1ulv18924.1.2 kV=0.2080002494301389 Vminpu=0.8 Vmaxpu=1.2 model=1 kW=1.79002 kvar=0.35971543666359257 Phases=2

...